powerflow/Codes/PF_Formulation/resultados_csv/17/9bus/barras.csv
caso,script,bus_id,vm_pu,va_rad,pd_pu,qd_pu,pg_pu,qg_pu,bus_type
9bus.pwf,17,1,1.0084477114914627,0.0,0.0,0.0,1.4291699621247804,0.22264795077604682,3
9bus.pwf,17,2,1.0048511107620404,-0.036885414138381985,0.0,0.0,0.9,0.03990938832047596,2
9bus.pwf,17,3,1.0069501759179929,-0.02953970771560533,0.0,0.0,0.85,-0.05242990475116701,2
9bus.pwf,17,4,0.9990710794759493,-0.08179768256030555,0.0,0.0,0.0,0.0,1
9bus.pwf,17,5,0.972528559067507,-0.15478233559261678,1.25,0.5,0.0,0.0,1
9bus.pwf,17,6,0.9880260571334507,-0.13417892572051854,0.9,0.3,0.0,0.0,1
9bus.pwf,17,7,1.0039306893697126,-0.0926736181329163,0.0,0.0,0.0,0.0,1
9bus.pwf,17,8,0.9937783033120182,-0.1278583737167126,1.0,0.35,0.0,0.0,1
9bus.pwf,17,9,1.0112119740272505,-0.078476975134523,0.0,0.0,0.0,0.0,1
